Version 4
SHEET 1 880 680
SYMBOL ampi -368 0 R0
SYMATTR InstName U1
SYMBOL otai -144 16 R0
WINDOW 38 4 97 Left 2
SYMATTR InstName U2
SYMBOL girador -368 128 R0
SYMATTR InstName U3
SYMBOL compod 32 -128 R0
SYMATTR InstName U4
SYMBOL transpip 32 144 R0
SYMATTR InstName U5
SYMBOL transpin -144 144 R0
SYMATTR InstName U6
SYMBOL Teoría\ de\ Circuitos\ II -288 -80 R0
SYMATTR InstName X1
SYMBOL Circuitos2\\Borneras\\Borne 192 -128 R0
SYMATTR InstName U7
SYMBOL rtc 192 -16 R0
SYMATTR InstName R1
SYMBOL Circuitos2\\Fuentes\ Controladas\\grombo 224 96 R0
SYMATTR InstName G1
SYMBOL Circuitos2\\Fuentes\\Vdc 368 -80 R0
SYMATTR InstName V1
SYMBOL Circuitos2\\Fuentes\\Idc 384 96 R0
SYMATTR InstName I1
SYMBOL Circuitos2\\Llaves\\ltabrir 368 288 R0
SYMATTR InstName U8
SYMBOL Circuitos2\\Medidores\\Amperimetro -368 352 R0
SYMATTR InstName V2
SYMBOL Circuitos2\\Transformadores\\trafoi -128 368 R0
SYMATTR InstName U9
SYMBOL Circuitos2\\Llaves\\ltcerrar 192 304 R0
WINDOW 39 17 -37 Center 2
SYMATTR InstName U10
SYMBOL Circuitos2\\Fuentes\\masa 48 80 R0
SYMATTR InstName U11
SYMBOL Circuitos2\\Letreros\\Instalación\ correcta 224 400 R0
SYMATTR InstName X3
SYMBOL Circuitos2\\Magneticos\\Entrehierro -352 544 R0
SYMATTR InstName U12
SYMBOL Circuitos2\\antrMagneticos\\Fmm -144 544 R0
SYMATTR InstName U13
SYMBOL Circuitos2\\antrMagneticos\\Reluctor 128 560 R0
SYMATTR InstName U14
SYMBOL Circuitos2\\antrMagneticos\\reluctorbr 432 560 R0
SYMATTR InstName U15
SYMBOL Circuitos2\\antrMagneticos\\Reluctancia 624 544 R0
WINDOW 0 -69 -22 Right 2
WINDOW 123 -80 13 Center 2
SYMATTR InstName R2
TEXT -288 -24 Center 1 ;Universidad Nacional de la Patagonia SJB
