Version 4
SHEET 1 880 680
SYMBOL ganancia 128 80 R0
SYMATTR InstName U1
SYMBOL integrador 32 -32 R0
SYMATTR InstName U2
SYMBOL restador2 -80 -32 R0
SYMATTR InstName U3
SYMBOL sumador2 -80 64 R0
SYMATTR InstName U4
SYMBOL sumador3 -80 160 R0
SYMATTR InstName U5
SYMBOL sumador5 144 208 R0
SYMATTR InstName U6
SYMBOL escalon 304 -32 R0
SYMATTR InstName U7
SYMBOL Circuitos2\\Bloques\\impulso 320 112 R0
SYMATTR InstName U8
SYMBOL Circuitos2\\Letreros\\Teoría\ de\ Circuitos\ II -128 -144 R0
SYMATTR InstName X1
SYMBOL Circuitos2\\Bloques\\integradort 160 -32 R0
SYMATTR InstName U9
TEXT 112 -168 Left 2 ;Biblioteca de Bloques\ndel tipo de Simulink
