Version 4
SHEET 1 1492 952
WIRE 240 16 -176 16
WIRE 480 16 240 16
WIRE 240 48 240 16
WIRE 416 96 304 96
WIRE -176 160 -176 16
WIRE 240 208 240 160
WIRE 464 208 240 208
WIRE 240 256 240 208
WIRE 464 256 240 256
WIRE 240 288 240 256
WIRE 432 304 304 304
WIRE -176 416 -176 272
WIRE 240 416 240 400
FLAG -176 416 0
FLAG 240 416 0
DATAFLAG 432 16 ""
DATAFLAG 416 208 ""
DATAFLAG 384 96 ""
DATAFLAG 400 304 ""
DATAFLAG 352 256 "Ix(U4:1)"
SYMBOL Circuitos2\\Magneticos\\fmm -160 208 R0
WINDOW 3 119 2 Center 2
SYMATTR Value N=400 I=0.602
SYMATTR InstName U1
SYMBOL Circuitos2\\Magneticos\\Entrehierro 240 336 R0
SYMATTR Value Lr=Le Ar=A
SYMATTR Value2 fd=1.05
SYMATTR InstName U4
SYMBOL Circuitos2\\Magneticos\\Reluctor 240 112 R0
SYMATTR Value Lr=L Ar=A
SYMATTR InstName U2
SYMBOL Circuitos2\\Letreros\\Teoría\ de\ Circuitos\ II -208 -448 R0
SYMATTR InstName X1
TEXT 576 -272 Left 2 !.param ur=4000 A=12\n.param L=40 Le=0.05
TEXT 504 -328 Left 2 ;Definición de los parámetros
TEXT -128 360 Left 2 !.op
TEXT 64 -488 Left 4 ;Circuito Magnético \nEjemplo 1.2  de Chapmann\n¨¨¨¨¨¨¨¨¨¨¨¨¨¨¨¨¨¨¨¨¨¨¨¨¨¨¨¨¨¨¨¨¨¨¨¨¨¨¨¨¨¨¨¨¨¨¨
TEXT -248 -112 Left 2 !* La corriente en LTspice en A equivale al flujo magnetico en Wb\n* y la tensión en LTspice en V a las fmm en Av\n* La tensión en el terminal Rel equivale a H^-1
TEXT -408 -352 Left 2 ;Un núcleo ferromagnético cuya longitud media es 40cm tiene un pequeño\nentrehierro de 0.05 cm en la estructura del núcleo. La sección transversal\ndel núcleo es 12 cm2., la permeabilidad relativa es 4000 y la bobina de alambre\ntiene 400 vueltas. Suponga que el efecto marginal en el entrehierro incrementa\nla sección transversal del entrehierro en un 5%. Encontrar a) la reluctancia\ntotal del camino del flujo (hierro más entrehierro) y b) la corriente requerida\npara producir un campo magnético de 0.5 T en el entrehierro.
TEXT 616 -64 Left 3 !* ATENCIÓN *\n* Ingresar:\n* Longitudes en cm\n*  Áreas en cm^2
TEXT 528 -176 Left 3 ;En LTspice
LINE Normal 672 -128 576 -96 2
LINE Normal 784 -208 672 -128 2
LINE Normal 752 -112 784 -208 2
LINE Normal 896 -128 752 -112 2
LINE Normal 848 -64 896 -128 2
LINE Normal 1008 -64 848 -64 2
LINE Normal 864 -32 1008 -64 2
LINE Normal 992 32 864 -32 2
LINE Normal 912 48 992 32 2
LINE Normal 864 144 912 48 2
LINE Normal 848 96 864 144 2
LINE Normal 800 160 848 96 2
LINE Normal 784 96 800 160 2
LINE Normal 736 176 784 96 2
LINE Normal 720 96 736 176 2
LINE Normal 624 144 720 96 2
LINE Normal 656 80 624 144 2
LINE Normal 560 96 656 80 2
LINE Normal 592 32 560 96 2
LINE Normal 544 -16 592 32 2
LINE Normal 592 -16 544 -16 2
LINE Normal 576 -96 592 -16 2
