Version 4
SHEET 1 2656 1012
WIRE 272 64 -208 64
WIRE 784 64 272 64
WIRE 272 80 272 64
WIRE 272 112 272 80
WIRE 448 176 336 176
WIRE 272 192 176 192
WIRE 272 208 272 192
WIRE 272 208 176 208
WIRE 272 240 272 208
WIRE 1120 240 1088 240
WIRE 1248 240 1120 240
WIRE -208 272 -208 64
WIRE 352 272 320 272
WIRE 1088 272 1088 240
WIRE 1248 272 1248 240
WIRE 784 288 784 64
WIRE -144 304 -160 304
WIRE 208 304 192 304
WIRE 416 320 320 320
WIRE 848 320 832 320
WIRE -128 352 -160 352
WIRE 192 352 160 352
WIRE 848 368 832 368
WIRE -288 384 -304 384
WIRE 1088 384 1088 352
WIRE 1248 384 1248 352
WIRE 1248 384 1088 384
WIRE 272 400 272 352
WIRE 272 400 128 400
WIRE 704 400 672 400
WIRE 1088 416 1088 384
WIRE 272 432 272 400
WIRE -208 560 -208 384
WIRE 272 560 272 544
WIRE 272 560 -208 560
WIRE 784 560 784 400
WIRE 784 560 272 560
WIRE 272 592 272 560
FLAG 272 592 0
FLAG 272 64 V
FLAG 1088 416 0
FLAG 1120 240 mur
DATAFLAG 352 64 ""
DATAFLAG -160 64 "Ix(U2:1)"
DATAFLAG 720 64 "Ix(U3:1)"
DATAFLAG 192 192 "Ix(U1:1)"
DATAFLAG 176 208 ""
DATAFLAG 432 176 ""
DATAFLAG -304 384 ""
DATAFLAG 160 352 ""
DATAFLAG 672 400 ""
DATAFLAG 176 400 ""
DATAFLAG -144 304 ""
DATAFLAG -128 352 ""
DATAFLAG 352 272 ""
DATAFLAG 400 320 ""
DATAFLAG 848 320 ""
DATAFLAG 848 368 ""
DATAFLAG 1216 240 ""
SYMBOL Circuitos2\\Letreros\\Teoría\ de\ Circuitos\ II 80 -432 R0
SYMATTR InstName X1
SYMBOL Circuitos2\\Magneticos\\fmm 288 480 R0
WINDOW 3 122 -2 Center 2
SYMATTR Value N=800 I=0.436A
SYMATTR InstName U8
SYMATTR Description Fmm definida por N = número de vueltas e I= corriente por el arrollamiento en A
SYMBOL Circuitos2\\Magneticos\\Entrehierro 272 144 M180
WINDOW 0 -169 -18 Right 2
SYMATTR InstName U1
SYMBOL Circuitos2\\Magneticos\\reluctoraf -176 336 R0
SYMATTR InstName U2
SYMBOL Circuitos2\\Magneticos\\reluctoraf 304 304 R0
WINDOW 0 -105 -32 Left 2
SYMATTR InstName U4
SYMATTR Value Lr=L2 Ar=A2
SYMBOL Circuitos2\\Magneticos\\reluctoraf 816 352 R0
SYMATTR InstName U3
SYMBOL res 1232 256 R0
SYMATTR InstName R1
SYMATTR Value {0.251/(156.173*4*pi*1e-7)}
SYMBOL current 1088 352 M180
WINDOW 0 24 88 Left 2
WINDOW 3 24 0 Left 2
SYMATTR InstName I1
SYMATTR Value 1
TEXT -8 512 Left 2 !.op
TEXT -48 488 Left 2 ;* ANÁLISIS
TEXT -128 -344 Left 4 ;Circuito Magnético de 3 ramas\n¨¨¨¨¨¨¨¨¨¨¨¨¨¨¨¨¨¨¨¨¨¨¨¨¨¨¨¨¨¨¨¨¨¨¨¨¨¨¨¨¨¨¨¨¨¨¨¨
TEXT -168 -64 Left 2 !* La corriente en LTspice en A equivale al flujo magnetico en Wb\n* y la tensión en LTspice en V a las fmm en Av\n* La tensión en el terminal Rel equivale a H^-1
TEXT 536 -336 Left 3 !.param L1=70 A1 = 20\n.param Le=0.1 Ae = 40\n.param L2=25  A2=40
TEXT 552 -376 Left 2 ;Definición de los parámetros
TEXT 592 -64 Left 2 !* Acá LTspice \n* calcula la corriente que\n* equivale al flujo en Wb
TEXT -128 -280 Left 3 !* Ejemplo 1.1 de Fraile Mora Fig. 1.7
TEXT -160 -232 Left 2 ;El núcleo central del circuito magnético de la figura está\nbobinado con 800 espiras. El material es acero fundido con\nun valor de la permeabilidad relativa a calcular.\nCalcular la corriente i que debe aplicarse al bobinado\npara obtener en el entrehierro un flujo de 1  mWb.
TEXT -144 272 Left 2 !* Rama1
TEXT 64 280 Left 2 !* Rama 2
TEXT 824 256 Left 2 !* Rama 3
TEXT 1024 152 Left 2 ;Cálculo de la permeabilidad relativa
TEXT 928 -344 Left 3 !* ATENCIÓN *\n* En LTspice Ingresar:\n* Longitud en cm\n*  Área en cm^2
LINE Normal 672 32 672 0 2
LINE Normal 656 16 672 32 2
LINE Normal 672 32 656 16 2
LINE Normal 688 16 672 32 2
