Version 4
SHEET 1 2656 1012
WIRE 272 64 -208 64
WIRE 784 64 272 64
WIRE 272 80 272 64
WIRE 272 112 272 80
WIRE 448 176 336 176
WIRE 272 208 272 192
WIRE 272 208 176 208
WIRE 272 240 272 208
WIRE -208 272 -208 64
WIRE 784 288 784 64
WIRE 208 304 192 304
WIRE -144 320 -160 320
WIRE 880 336 848 336
WIRE 272 368 272 352
WIRE 368 368 272 368
WIRE 272 400 272 368
WIRE 272 400 128 400
WIRE 272 432 272 400
WIRE -208 560 -208 384
WIRE 272 560 272 544
WIRE 272 560 -208 560
WIRE 784 560 784 400
WIRE 784 560 272 560
WIRE 272 592 272 560
FLAG 272 592 0
FLAG 272 64 V
DATAFLAG 352 64 ""
DATAFLAG -160 64 "Ix(U2:1)"
DATAFLAG 720 64 "Ix(U3:1)"
DATAFLAG 368 368 "Ix(U4:1)"
DATAFLAG 176 208 ""
DATAFLAG 432 176 ""
DATAFLAG -144 320 ""
DATAFLAG 192 304 ""
DATAFLAG 880 336 ""
DATAFLAG 176 400 ""
SYMBOL Circuitos2\\Letreros\\Teoría\ de\ Circuitos\ II 80 -432 R0
SYMATTR InstName X1
SYMBOL Circuitos2\\Magneticos\\fmm 288 480 R0
WINDOW 3 122 -2 Center 2
SYMATTR Value N=800 I=0.485A
SYMATTR InstName U8
SYMBOL Circuitos2\\Magneticos\\Reluctor -208 336 R0
SYMATTR InstName U2
SYMBOL Circuitos2\\Magneticos\\Reluctor 784 352 R0
SYMATTR InstName U3
SYMBOL Circuitos2\\Magneticos\\Reluctor 272 288 R180
WINDOW 3 -110 7 Center 2
SYMATTR Value Lr=L2 Ar=A2
SYMATTR InstName U4
SYMBOL Circuitos2\\Magneticos\\Entrehierro 272 144 M180
WINDOW 0 -169 -18 Right 2
SYMATTR InstName U1
TEXT -8 512 Left 2 !.op
TEXT -48 488 Left 2 ;* ANÁLISIS
TEXT -128 -344 Left 4 ;Circuito Magnético de 3 ramas\n¨¨¨¨¨¨¨¨¨¨¨¨¨¨¨¨¨¨¨¨¨¨¨¨¨¨¨¨¨¨¨¨¨¨¨¨¨¨¨¨¨¨¨¨¨¨¨¨
TEXT -168 -64 Left 2 !* La corriente en LTspice en A equivale al flujo magnetico en Wb\n* y la tensión en LTspice en V a las fmm en Av\n* La tensión en el terminal Rel equivale a H^-1
TEXT 536 -336 Left 3 !.param ur=1000\n.param L1=70 A1 = 20\n.param Le=0.1 Ae = 40\n.param L2=25  A2=40
TEXT 552 -376 Left 2 ;Definición de los parámetros
TEXT 592 -64 Left 2 !* Acá LTspice \n* calcula la corriente que\n* equivale al flujo en Wb
TEXT -128 -280 Left 3 !* Ejemplo 1.1 de Fraile Mora Fig. 1.7
TEXT -160 -232 Left 2 ;El núcleo central del circuito magnético de la figura está\nbobinado con 800 espiras. El material es acero fundido con\nun valor de la permeabilidad relativa ur=1000.\nCalcular la corriente i que debe aplicarse al bobinado\npara obtener en el entrehierro un flujo de 1  mWb.
TEXT -144 272 Left 2 !* Rama1
TEXT 64 280 Left 2 !* Rama 2
TEXT 904 296 Left 2 !* Rama 3
TEXT 1000 -240 Left 3 !* ATENCIÓN *\n* Ingresar:\n* Longitudes en cm\n*  Áreas en cm^2
TEXT 1184 -336 Left 3 ;En LTspice
LINE Normal 672 32 672 0 2
LINE Normal 656 16 672 32 2
LINE Normal 672 32 656 16 2
LINE Normal 688 16 672 32 2
LINE Normal 1056 -304 960 -272 2
LINE Normal 1168 -384 1056 -304 2
LINE Normal 1136 -288 1168 -384 2
LINE Normal 1280 -304 1136 -288 2
LINE Normal 1232 -240 1280 -304 2
LINE Normal 1392 -240 1232 -240 2
LINE Normal 1248 -208 1392 -240 2
LINE Normal 1376 -144 1248 -208 2
LINE Normal 1296 -128 1376 -144 2
LINE Normal 1248 -32 1296 -128 2
LINE Normal 1232 -80 1248 -32 2
LINE Normal 1184 -16 1232 -80 2
LINE Normal 1168 -80 1184 -16 2
LINE Normal 1120 0 1168 -80 2
LINE Normal 1104 -80 1120 0 2
LINE Normal 1008 -32 1104 -80 2
LINE Normal 1040 -96 1008 -32 2
LINE Normal 944 -80 1040 -96 2
LINE Normal 976 -144 944 -80 2
LINE Normal 928 -192 976 -144 2
LINE Normal 976 -192 928 -192 2
LINE Normal 960 -272 976 -192 2
