Version 4
SHEET 1 2656 1012
WIRE 176 0 -144 0
WIRE 272 0 176 0
WIRE 784 0 272 0
WIRE 336 48 336 16
WIRE 448 48 336 48
WIRE 272 112 272 96
WIRE 272 128 272 112
WIRE 272 128 176 128
WIRE 464 128 272 128
WIRE 272 144 272 128
WIRE 784 144 784 0
WIRE -144 160 -144 0
WIRE 464 192 336 192
WIRE 976 192 848 192
WIRE 32 208 -80 208
WIRE 272 256 272 240
WIRE 272 272 272 256
WIRE 272 272 128 272
WIRE 272 320 272 272
WIRE 272 432 272 416
WIRE -144 448 -144 272
WIRE 272 448 272 432
WIRE 272 448 -144 448
WIRE 784 448 784 256
WIRE 784 448 272 448
WIRE 272 480 272 448
FLAG 272 480 0
FLAG 176 0 V
DATAFLAG 96 0 ""
DATAFLAG -96 0 "Ix(U2:1)"
DATAFLAG 720 0 "Ix(U3:1)"
DATAFLAG 192 272 ""
DATAFLAG 176 128 ""
DATAFLAG 0 208 ""
DATAFLAG 432 192 ""
DATAFLAG 912 192 ""
DATAFLAG 400 48 ""
DATAFLAG 416 128 "Ix(U4:1)"
SYMBOL Circuitos2\\Letreros\\Teoría\ de\ Circuitos\ II 96 -416 R0
SYMATTR InstName X1
SYMBOL Circuitos2\\Magneticos\\fmm 288 368 R0
WINDOW 3 122 -2 Center 2
SYMATTR Value N=800 I=0.485
SYMATTR InstName U8
SYMBOL Circuitos2\\Magneticos\\Reluctor -144 224 R0
SYMATTR InstName U2
SYMBOL Circuitos2\\Magneticos\\Reluctor 784 208 R0
SYMATTR InstName U3
SYMBOL Circuitos2\\Magneticos\\Reluctor 272 208 R0
SYMATTR Value Lr=L2 Ar=A2
SYMATTR InstName U4
SYMBOL Circuitos2\\Magneticos\\Entrehierro 272 48 R0
SYMATTR InstName U5
TEXT 0 416 Left 2 !.op
TEXT -40 392 Left 2 ;* ANÁLISIS
TEXT 352 -456 Left 4 ;Circuito Magnético de 3 ramas\n¨¨¨¨¨¨¨¨¨¨¨¨¨¨¨¨¨¨¨¨¨¨¨¨¨¨¨¨¨¨¨¨¨¨¨¨¨¨¨¨¨¨¨¨¨¨¨¨
TEXT 568 -304 Left 3 !.param  ur=1000\n.param L1=70 A1 = 20\n.param Le=0.1 Ae = 40\n.param L2=25  A2=40
TEXT 584 -344 Left 2 ;Definición de los parámetros
TEXT 624 -144 Left 2 !* Acá LTspice \n* calcula la corriente que\n* equivale al flujo en Wb
TEXT 368 -392 Left 3 !* Ejemplo 1.1 de Fraile Mora Fig. 1.7
TEXT -144 -336 Left 2 ;El núcleo central del circuito magnético de la figura está\nbobinado con 800 espiras. El material es acero fundido con\nun valor de la permeabilidad relativa ur=1000.\nCalcular la corriente i que debe aplicarse a la bobinado\npara obtener en el entrehierro un flujo de 1  mWb.
TEXT -120 136 Left 2 !* Rama1
TEXT 360 240 Left 2 !* Rama 2
TEXT 632 120 Left 2 !* Rama 3
TEXT -144 -160 Left 2 !* La corriente en LTspice en A equivale al flujo magnetico en Wb\n* y la tensión en LTspice en V a las fmm en Av\n* La tensión en el terminal Rel equivale a H^-1
TEXT 920 -304 Left 3 !* ATENCIÓN *\n* En LTspice Ingresar:\n* Longitud en cm\n*  Área en cm^2
TEXT 376 512 Left 2 ;>> mag3 (0,278.52116,0,800*0.485,49.735918,198.94367,0,278.52116,0)\n \n* Circuito magnético de tres ramas |1| |2| |3| \n  los sentidos positivos en las ramas son indicados con ^  \n  Flujo1 ^ = -500.077 µWb\n  Flujo2 ^ = 1.00015 mWb\n  Flujo3 ^ = -500.077 µWb
TEXT 424 480 Left 2 !* Solución en Matlab
LINE Normal 672 -32 672 -64 2
LINE Normal 656 -48 672 -32 2
LINE Normal 672 -32 656 -48 2
LINE Normal 688 -48 672 -32 2
