Version 4
SHEET 1 2656 1012
WIRE 768 32 752 32
WIRE 912 32 768 32
WIRE -272 64 -320 64
WIRE -112 64 -160 64
WIRE 160 64 -112 64
WIRE 480 64 272 64
WIRE 752 64 752 32
WIRE 912 64 912 32
WIRE -112 144 -112 64
WIRE -16 144 -112 144
WIRE 752 176 752 144
WIRE 912 176 912 144
WIRE 912 176 752 176
WIRE 752 208 752 176
WIRE 208 224 208 128
WIRE 304 224 208 224
WIRE 608 336 592 336
WIRE 752 336 608 336
WIRE 1136 336 1120 336
WIRE 1280 336 1136 336
WIRE 592 368 592 336
WIRE 752 368 752 336
WIRE 1120 368 1120 336
WIRE 1280 368 1280 336
WIRE 592 480 592 448
WIRE 752 480 752 448
WIRE 752 480 592 480
WIRE 1120 480 1120 448
WIRE 1280 480 1280 448
WIRE 1280 480 1120 480
WIRE 592 512 592 480
WIRE 1120 512 1120 480
WIRE -320 528 -320 64
WIRE 480 528 480 64
WIRE 480 528 -320 528
WIRE -320 560 -320 528
FLAG -320 560 0
FLAG 752 208 0
FLAG 768 32 long
FLAG 592 512 0
FLAG 608 336 B1
FLAG 1120 512 0
FLAG 1136 336 B2
DATAFLAG 80 64 "Ix(U1:1)"
DATAFLAG 880 32 ""
DATAFLAG -64 144 ""
DATAFLAG 720 336 ""
DATAFLAG 1248 336 ""
DATAFLAG 304 224 ""
SYMBOL Circuitos2\\Letreros\\Teoría\ de\ Circuitos\ II -160 -416 R0
SYMATTR InstName X1
SYMBOL Circuitos2\\Magneticos\\fmm -208 48 M270
WINDOW 3 65 2 VBottom 2
WINDOW 0 8 8 VTop 2
SYMATTR Value N=1500 I=0.2A
SYMATTR InstName U8
SYMBOL res 896 48 R0
SYMATTR InstName R1
SYMATTR Value {300/L1*100}
SYMBOL current 752 144 M180
WINDOW 0 24 88 Left 2
WINDOW 3 24 0 Left 2
SYMATTR InstName I1
SYMATTR Value 1
SYMBOL res 736 352 R0
SYMATTR InstName R3
SYMATTR Value {1.005u/A1*10000}
SYMBOL current 592 448 M180
WINDOW 0 24 88 Left 2
WINDOW 3 24 0 Left 2
SYMATTR InstName I3
SYMATTR Value 1
SYMBOL res 1264 352 R0
SYMATTR InstName R2
SYMATTR Value {u0*1k}
SYMBOL current 1120 448 M180
WINDOW 0 24 88 Left 2
WINDOW 3 24 0 Left 2
SYMATTR InstName I2
SYMATTR Value 1
SYMBOL Circuitos2\\Magneticos\\Reluctor 224 64 M90
WINDOW 3 -53 106 VCenter 2
WINDOW 123 -26 123 VCenter 2
SYMATTR Value2 ur=1 fd=1
SYMATTR InstName U1
TEXT -104 448 Left 2 !.op
TEXT -144 424 Left 2 ;* ANÁLISIS
TEXT 96 -456 Left 4 ;Toroide de núcleo de aire\n¨¨¨¨¨¨¨¨¨¨¨¨¨¨¨¨¨¨¨¨¨¨¨¨¨¨¨¨¨¨¨¨¨¨¨¨¨¨¨¨
TEXT 272 -136 Left 3 !.param u0=4*pi*1e-7\n.param L1=30 A1 =8
TEXT 280 -192 Left 2 ;Definición de los parámetros
TEXT -48 -80 Left 2 !* Acá LTspice \n* calcula la corriente que\n* equivale al flujo en Wb
TEXT 96 -384 Left 2 ;Una bobina de arrollamiento toroidal de núcleo de aire tiene \n1500 vueltas y por ella circula una corriente de 0.2 A. \nLa longitud del circuito magnético es 300 mm y la sección recta \nde la bobina es 800 mm2. Calcular:\na) H b)B y  c) el flujo concatenado enel toroide
TEXT 752 -48 Left 2 ;Cálculo del campo H\nH=N*I/L en Av/m
TEXT 600 256 Left 2 ;Cálculo de B\nflujo/Area en T
TEXT 1128 256 Left 2 ;Cálculo de B\nB=u0*H en T
TEXT -448 -200 Left 2 !* La corriente en LTspice en A equivale al flujo magnetico en Wb\n* y la tensión en LTspice en V a las fmm en Av\n* La tensión en el terminal Rel equivale a H^-1
TEXT 936 -288 Left 3 !* ATENCIÓN *\n* Ingresar:\n* Longitudes en cm\n*  Áreas en cm^2
TEXT 904 -448 Left 3 ;Para los componentes
TEXT 824 232 Left 3 ;Acá las magnitudes\n van  en m y m^2
LINE Normal 48 32 112 0 2
LINE Normal 48 16 48 32 2
LINE Normal 48 32 48 16 2
LINE Normal 80 32 48 32 2
LINE Normal 992 -352 896 -320 2
LINE Normal 1104 -432 992 -352 2
LINE Normal 1072 -336 1104 -432 2
LINE Normal 1216 -352 1072 -336 2
LINE Normal 1168 -288 1216 -352 2
LINE Normal 1328 -288 1168 -288 2
LINE Normal 1184 -256 1328 -288 2
LINE Normal 1312 -192 1184 -256 2
LINE Normal 1232 -176 1312 -192 2
LINE Normal 1184 -80 1232 -176 2
LINE Normal 1168 -128 1184 -80 2
LINE Normal 1120 -64 1168 -128 2
LINE Normal 1104 -128 1120 -64 2
LINE Normal 1056 -48 1104 -128 2
LINE Normal 1040 -128 1056 -48 2
LINE Normal 944 -80 1040 -128 2
LINE Normal 976 -144 944 -80 2
LINE Normal 880 -128 976 -144 2
LINE Normal 912 -192 880 -128 2
LINE Normal 864 -240 912 -192 2
LINE Normal 912 -240 864 -240 2
LINE Normal 896 -320 912 -240 2
