Version 4
SHEET 1 1688 880
WIRE 128 176 -240 176
WIRE 544 176 128 176
WIRE 128 240 128 176
WIRE 304 240 128 240
WIRE 128 272 128 240
WIRE -240 288 -240 176
WIRE 544 288 544 176
WIRE 128 416 128 384
WIRE 544 432 544 400
WIRE -240 464 -240 400
WIRE -240 608 -240 576
WIRE 128 608 128 528
WIRE 128 608 -240 608
WIRE 544 608 544 544
WIRE 544 608 128 608
WIRE 128 656 128 608
FLAG 128 656 0
DATAFLAG 384 176 "I(R3)"
DATAFLAG -208 176 "I(R1)"
DATAFLAG 256 240 "I(R2)"
SYMBOL Circuitos2\\Magneticos\\fmm -224 512 R0
WINDOW 3 111 0 Center 2
SYMATTR Value N=2000  I=1.175A
SYMATTR InstName U1
SYMBOL Circuitos2\\Magneticos\\fmm 528 480 M0
WINDOW 3 120 -5 Center 2
WINDOW 0 -71 -57 Left 2
SYMATTR Value N=2000  I=1.175A
SYMATTR InstName U2
SYMBOL Circuitos2\\Magneticos\\Reluctancia -208 336 R0
SYMATTR Value2 270.56k
SYMATTR InstName R1
SYMBOL Circuitos2\\Magneticos\\Reluctancia 96 336 R180
WINDOW 123 12 -62 Left 2
SYMATTR Value2 101.86k
SYMATTR InstName R2
SYMBOL Circuitos2\\Magneticos\\Reluctancia 512 336 M0
SYMATTR Value2 270.56k
SYMATTR InstName R3
SYMBOL Circuitos2\\Magneticos\\Rentrehierro 192 464 R0
WINDOW 3 37 -2 Center 2
SYMATTR Value 9549.3k
SYMATTR InstName R5
SYMBOL Circuitos2\\Letreros\\Teoría\ de\ Circuitos\ II -32 -288 R0
SYMATTR InstName X1
TEXT 240 568 Left 2 !.op
TEXT 208 544 Left 2 ;* ANÁLISIS
TEXT -240 -168 Left 2 ;La figura muestra un circuito magnético con un entrehierro. Dos arrollamientos conectados en serie están ubicados en las columnas \nexternas con una corriente circulando de 1.175 A. La sección recta del núcleo ferromagnético laminado es 25 mm x 20 mm = 500 mm2. \nLa longitud media del trayecto magnetico en cada sección external es lFe1 = lFe2 = 170 mm y la de la columna central es lFe = 64 mm.\nEl entrehierro tiene un valor de = 6 mm. La permeabilidad relativa del núcleo es 1000.\nDeterminar los flujos y campos en cada columna y en el entrehierro.
TEXT 520 -312 Center 4 ;Circuito con dos arrollamientos\n y un entrehierro\n¨¨¨¨¨¨¨¨¨¨¨¨¨¨¨¨¨¨¨¨¨¨¨¨¨¨¨¨¨¨¨¨¨¨¨¨¨¨¨¨¨¨¨¨¨¨¨¨¨¨
TEXT 240 -208 Left 3 !* Ingreso directo de las reluctancias
TEXT -256 -8 Left 2 !* La corriente en LTspice en A equivale al flujo magnetico en Wb\n* y la tensión en LTspice en V a las fmm en Av\n* La tensión en el terminal Rel equivale a H^-1
TEXT 552 -16 Left 2 ;>> mag3 (2000*1.175, 270.56, 0, 0, 101.86, 9549.3, 2000*1.175, 270.56, 0)\n \n* Circuito magnético de tres ramas |1| |2| |3| \n  los sentidos positivos en las ramas son indicados con ^  \n  Flujo1 ^ = 0.120064 mWb\n  Flujo2 ^ = -240.128 µWb\n  Flujo3 ^ = 0.120064 mWb
