Version 4
SHEET 1 880 748
WIRE -64 240 -144 240
WIRE 224 240 48 240
WIRE 640 240 224 240
WIRE 224 304 224 240
WIRE 400 304 224 304
WIRE -144 336 -144 240
WIRE 224 336 224 304
WIRE 640 352 640 240
WIRE -144 496 -144 448
WIRE 224 512 224 448
WIRE 640 512 640 464
WIRE -144 672 -144 608
WIRE 224 672 224 624
WIRE 224 672 -144 672
WIRE 640 672 640 624
WIRE 640 672 224 672
WIRE 224 720 224 672
FLAG 224 720 0
DATAFLAG 480 240 "I(R3)"
DATAFLAG -112 240 "I(R1)"
DATAFLAG 352 304 "I(R2)"
SYMBOL Circuitos2\\Magneticos\\fmm -128 544 R0
WINDOW 3 111 0 Center 2
SYMATTR Value N=50  I=16.3A
SYMATTR InstName U1
SYMBOL Circuitos2\\Magneticos\\fmm 240 560 R0
WINDOW 3 105 -6 Center 2
SYMATTR Value N=200 I=4.12A
SYMATTR InstName U2
SYMBOL Circuitos2\\Magneticos\\Reluctancia -176 400 R180
WINDOW 123 12 -62 Left 2
SYMATTR Value2 64.99k
SYMATTR InstName R1
SYMBOL Circuitos2\\Magneticos\\Reluctancia 192 400 R180
WINDOW 123 12 -62 Left 2
SYMATTR Value2 65.65k
SYMATTR InstName R2
SYMBOL Circuitos2\\Magneticos\\Reluctancia 608 416 R180
WINDOW 123 12 -62 Left 2
SYMATTR Value2 26.5k
SYMATTR InstName R3
SYMBOL Circuitos2\\Magneticos\\Rentrehierro -16 176 R270
WINDOW 0 -12 0 VTop 2
WINDOW 3 -116 0 VBottom 2
SYMATTR InstName R4
SYMATTR Value 5305k
SYMBOL Circuitos2\\Magneticos\\Rentrehierro 576 576 R180
WINDOW 0 19 -7 Center 2
WINDOW 3 -6 -37 Left 2
SYMATTR InstName R5
SYMATTR Value 2653k
SYMBOL Circuitos2\\Letreros\\Teorํa\ de\ Circuitos\ II 224 -16 R0
SYMATTR InstName X1
TEXT -40 728 Left 2 !.op
TEXT -72 704 Left 2 ;* ANมLISIS
TEXT 16 64 Left 4 ;Circuito Magn้tico de 3 ramas\ncon dos entrehierros\nจจจจจจจจจจจจจจจจจจจจจจจจจจจจจจจจจจจจจจจจจจจจจจจจ
