Version 4
SHEET 1 1296 748
WIRE -32 240 -144 240
WIRE 224 240 80 240
WIRE 720 240 224 240
WIRE 224 304 224 240
WIRE 400 304 224 304
WIRE -144 336 -144 240
WIRE -16 336 -16 304
WIRE 96 336 -16 336
WIRE 224 336 224 304
WIRE 720 336 720 240
WIRE 0 384 -80 384
WIRE 448 384 288 384
WIRE 896 384 784 384
WIRE -144 512 -144 448
WIRE 720 512 720 448
WIRE 224 528 224 448
WIRE 880 528 784 528
WIRE -144 672 -144 624
WIRE 224 672 224 640
WIRE 224 672 -144 672
WIRE 720 672 720 624
WIRE 720 672 224 672
WIRE 224 720 224 672
FLAG 224 720 0
DATAFLAG 480 240 "Ix(U7:1)"
DATAFLAG -112 240 "Ix(U5:1)"
DATAFLAG 352 304 "Ix(U6:1)"
DATAFLAG 32 336 ""
DATAFLAG -64 384 ""
DATAFLAG 352 384 ""
DATAFLAG 816 384 ""
DATAFLAG 816 528 ""
SYMBOL Circuitos2\\Magneticos\\fmm -128 560 R0
WINDOW 3 111 0 Center 2
SYMATTR Value N=50  I=16.3A
SYMATTR InstName U1
SYMBOL Circuitos2\\Magneticos\\fmm 240 576 R0
WINDOW 3 105 -6 Center 2
SYMATTR Value N=200 I=4.12
SYMATTR InstName U2
SYMBOL Circuitos2\\Magneticos\\Reluctor -144 400 R0
SYMATTR InstName U5
SYMBOL Circuitos2\\Magneticos\\Reluctor 224 400 R0
SYMATTR Value Lr=L2 Ar=A2
SYMATTR InstName U6
SYMBOL Circuitos2\\Magneticos\\Reluctor 720 400 R0
SYMATTR Value Lr=L3 Ar=A3
SYMATTR InstName U7
SYMBOL Circuitos2\\Magneticos\\Entrehierro 16 240 M90
SYMATTR Value Lr=Le1 Ar=Ae1
SYMATTR InstName U8
SYMBOL Circuitos2\\Magneticos\\Entrehierro 720 560 R0
SYMATTR Value Lr=Le3 Ar=Ae3
SYMATTR InstName U9
SYMBOL Circuitos2\\Letreros\\Teoría\ de\ Circuitos\ II -96 -336 R0
SYMATTR InstName X1
TEXT -40 728 Left 2 !.op
TEXT -72 704 Left 2 ;* ANÁLISIS
TEXT 160 -88 Left 3 !.param ur=4000\n.param Le1=0.2 Ae1 = 3\n.param Le3=0.1  Ae3 = 3\n.param L1=10-0.2 A1 =  3\n.param L2=10-0.1 A2= 3\n.param L3=4  A3= 3
TEXT 160 -136 Left 2 ;Definición de los parámetros
TEXT -304 -256 Left 4 ;Circuito Magnético de 3 ramas\ncon dos entrehierros\n¨¨¨¨¨¨¨¨¨¨¨¨¨¨¨¨¨¨¨¨¨¨¨¨¨¨¨¨¨¨¨¨¨¨¨¨¨¨¨¨¨¨¨¨¨¨¨¨
TEXT 632 -96 Left 3 !* ATENCIÓN *\n* Ingresar:\n* Longitudes en cm\n*  Áreas en cm^2
TEXT 824 -192 Left 3 ;En LTspice
LINE Normal 688 -160 592 -128 2
LINE Normal 800 -240 688 -160 2
LINE Normal 768 -144 800 -240 2
LINE Normal 912 -160 768 -144 2
LINE Normal 864 -96 912 -160 2
LINE Normal 1024 -96 864 -96 2
LINE Normal 880 -64 1024 -96 2
LINE Normal 1008 0 880 -64 2
LINE Normal 928 16 1008 0 2
LINE Normal 880 112 928 16 2
LINE Normal 864 64 880 112 2
LINE Normal 816 128 864 64 2
LINE Normal 800 64 816 128 2
LINE Normal 752 144 800 64 2
LINE Normal 736 64 752 144 2
LINE Normal 640 112 736 64 2
LINE Normal 672 48 640 112 2
LINE Normal 576 64 672 48 2
LINE Normal 608 0 576 64 2
LINE Normal 560 -48 608 0 2
LINE Normal 608 -48 560 -48 2
LINE Normal 592 -128 608 -48 2
