Version 4
SHEET 1 2656 1012
WIRE 176 112 -144 112
WIRE 272 112 176 112
WIRE 784 112 272 112
WIRE 272 192 272 112
WIRE 400 192 272 192
WIRE 416 240 336 240
WIRE -144 288 -144 112
WIRE 784 304 784 112
WIRE 272 320 272 304
WIRE 448 320 272 320
WIRE 16 336 -80 336
WIRE 272 336 272 320
WIRE 912 352 848 352
WIRE 272 464 272 448
WIRE -144 608 -144 400
WIRE 272 608 272 576
WIRE 272 608 -144 608
WIRE 784 608 784 416
WIRE 784 608 272 608
WIRE 272 640 272 608
FLAG 272 640 0
FLAG 176 112 V
DATAFLAG 96 112 ""
DATAFLAG -96 112 "Ix(U6:1)"
DATAFLAG 720 112 "Ix(U3:1)"
DATAFLAG 352 192 "Ix(U4:1)"
DATAFLAG 400 320 ""
DATAFLAG -16 336 ""
DATAFLAG 384 240 ""
DATAFLAG 880 352 ""
SYMBOL Circuitos2\\Letreros\\Teoría\ de\ Circuitos\ II 48 -240 R0
SYMATTR InstName X1
SYMBOL Circuitos2\\Magneticos\\fmm 288 512 R0
WINDOW 3 86 -5 Center 2
SYMATTR Value N=75  I=2A
SYMATTR InstName U1
SYMBOL Circuitos2\\Magneticos\\fmm 288 384 R0
WINDOW 3 92 1 Center 2
SYMATTR Value N=250 I=2A
SYMATTR InstName U2
SYMBOL Circuitos2\\Magneticos\\Reluctor -144 352 R0
SYMATTR InstName U6
SYMBOL Circuitos2\\Magneticos\\Reluctor 784 368 R0
SYMATTR InstName U3
SYMBOL Circuitos2\\Magneticos\\Reluctor 272 256 R0
SYMATTR Value Lr=L2 Ar=A2
SYMATTR InstName U4
TEXT 8 568 Left 2 !.op
TEXT -32 544 Left 2 ;* ANÁLISIS
TEXT -144 -144 Left 4 ;Circuito magnetico con dos\narrollamientos en la barra central\n¨¨¨¨¨¨¨¨¨¨¨¨¨¨¨¨¨¨¨¨¨¨¨¨¨¨¨¨¨¨¨¨¨¨¨¨¨¨¨¨¨¨¨¨¨¨¨¨¨¨
TEXT 600 -200 Left 3 !.param ur=1000\n.param L1=16 A1 = 2.5\n.param L2=5  A2=5
TEXT 616 -232 Left 2 ;Definición de los parámetros
TEXT 624 -32 Left 2 !* Acá LTspice \n* calcula la corriente que\n* equivale al flujo en Wb
TEXT -120 296 Left 2 !* Rama1
TEXT 120 352 Left 2 !* Rama 2
TEXT 632 280 Left 2 !* Rama 3
TEXT 840 72 Left 2 ;Con Matlab\nmag3(0,509.296,0,650,79.5775,0,0,509.296,0)\n \n* Circuito magnético de tres ramas |1| |2| |3| \n  los sentidos positivos en las ramas son indicados con ^  \n  Flujo1 ^ = -972.397 µWb\n  Flujo2 ^ = 1.94479 mWb\n  Flujo3 ^ = -972.397 µWb
TEXT -152 -24 Left 2 !* La corriente en LTspice en A equivale al flujo magnetico en Wb\n* y la tensión en LTspice en V a las fmm en Av\n* La tensión en el terminal Rel equivale a H^-1
TEXT 1048 -192 Left 3 !* ATENCIÓN *\n* Ingresar:\n* Longitudes en cm\n*  Áreas en cm^2
TEXT 1240 -288 Left 3 ;En LTspice
LINE Normal 672 80 672 48 2
LINE Normal 656 64 672 80 2
LINE Normal 672 80 656 64 2
LINE Normal 688 64 672 80 2
LINE Normal 1104 -256 1008 -224 2
LINE Normal 1216 -336 1104 -256 2
LINE Normal 1184 -240 1216 -336 2
LINE Normal 1328 -256 1184 -240 2
LINE Normal 1280 -192 1328 -256 2
LINE Normal 1440 -192 1280 -192 2
LINE Normal 1296 -160 1440 -192 2
LINE Normal 1424 -96 1296 -160 2
LINE Normal 1344 -80 1424 -96 2
LINE Normal 1296 16 1344 -80 2
LINE Normal 1280 -32 1296 16 2
LINE Normal 1232 32 1280 -32 2
LINE Normal 1216 -32 1232 32 2
LINE Normal 1168 48 1216 -32 2
LINE Normal 1152 -32 1168 48 2
LINE Normal 1056 16 1152 -32 2
LINE Normal 1088 -48 1056 16 2
LINE Normal 992 -32 1088 -48 2
LINE Normal 1024 -96 992 -32 2
LINE Normal 976 -144 1024 -96 2
LINE Normal 1024 -144 976 -144 2
LINE Normal 1008 -224 1024 -144 2
