Version 4
SHEET 1 2656 1012
WIRE 128 64 -192 64
WIRE 416 64 240 64
WIRE 736 64 528 64
WIRE 736 112 736 64
WIRE -192 208 -192 64
WIRE 144 240 144 128
WIRE 240 240 144 240
WIRE 464 240 464 128
WIRE 544 240 464 240
WIRE 736 320 736 224
WIRE -192 528 -192 320
WIRE 224 528 -192 528
WIRE 736 528 736 432
WIRE 736 528 224 528
WIRE 224 560 224 528
FLAG 224 560 0
DATAFLAG 0 64 "Ix(U5:1)"
DATAFLAG 240 240 ""
DATAFLAG 544 240 ""
SYMBOL Circuitos2\\Letreros\\Teoría\ de\ Circuitos\ II -192 -384 R0
SYMATTR InstName X1
SYMBOL Circuitos2\\Magneticos\\fmm -176 256 R0
WINDOW 3 122 -2 Center 2
SYMATTR Value N=350 I=01.5A
SYMATTR InstName U8
SYMBOL Circuitos2\\Magneticos\\fmm 720 176 R180
WINDOW 3 -191 -37 Left 2
WINDOW 0 71 -3 Center 2
SYMATTR Value N=500 I=3.5A
SYMATTR InstName U2
SYMBOL Circuitos2\\Magneticos\\fmm 752 368 R0
WINDOW 3 100 13 Center 2
SYMATTR Value N=500 I=2.5A
SYMATTR InstName U3
SYMBOL Circuitos2\\Magneticos\\Reluctor 480 64 M90
WINDOW 3 -59 -23 VCenter 2
WINDOW 123 -92 -34 VCenter 2
SYMATTR InstName U4
SYMBOL Circuitos2\\Magneticos\\Entrehierro 176 64 M90
WINDOW 3 93 86 VCenter 2
WINDOW 123 44 79 VCenter 2
WINDOW 0 -8 71 Right 2
SYMATTR InstName U5
TEXT -32 480 Left 2 !.op
TEXT -72 456 Left 2 ;* ANÁLISIS
TEXT 72 -424 Left 4 ;Circuito Magnético con un entrehierro\ny tres arrollamientos\n¨¨¨¨¨¨¨¨¨¨¨¨¨¨¨¨¨¨¨¨¨¨¨¨¨¨¨¨¨¨¨¨¨¨¨¨¨¨¨¨¨¨¨¨¨¨¨¨
TEXT 616 -232 Left 3 !.param  ur=1400\n.param L1=119.6 A1 =9\n.param Le=0.4 Ae =9
TEXT 632 -272 Left 2 ;Definición de los parámetros
TEXT 576 -64 Left 2 !* Acá LTspice \n* calcula la corriente que\n* equivale al flujo en Wb
TEXT -344 -312 Left 2 ;El núcleo rectangular de la figura tiene una longitud media\nde camino magnético de 120 cm, un sección recta de (3 cm × 3 cm), \nuna permeabilidad relativa de 1400 y un entehierro de 4 mm cortado en el núcleo.\nTres bobinados tiene los siguientes número de vueltas\n N1 = 350, N2 = 500 y N3 = 500; y sus respectivas corriente son 1.5 A, 3.5 A y 2.5 A. \nSe muestra el sentido de las corrientes. Determinar el flujo en el entrehierro.
TEXT -144 224 Left 2 !* Rama1
TEXT 1048 -224 Left 3 !* ATENCIÓN *\n* Ingresar:\n* Longitudes en cm\n*  Áreas en cm^2
TEXT -256 -128 Left 2 !* La corriente en LTspice en A equivale al flujo magnetico en Wb\n* y la tensión en LTspice en V a las fmm en Av\n* La tensión en el terminal Rel equivale a H^-1
TEXT 1040 -392 Left 3 ;Para los componentes
LINE Normal 624 32 624 0 2
LINE Normal 608 16 624 32 2
LINE Normal 624 32 608 16 2
LINE Normal 640 16 624 32 2
LINE Normal 1104 -288 1008 -256 2
LINE Normal 1216 -368 1104 -288 2
LINE Normal 1184 -272 1216 -368 2
LINE Normal 1328 -288 1184 -272 2
LINE Normal 1280 -224 1328 -288 2
LINE Normal 1440 -224 1280 -224 2
LINE Normal 1296 -192 1440 -224 2
LINE Normal 1424 -128 1296 -192 2
LINE Normal 1344 -112 1424 -128 2
LINE Normal 1296 -16 1344 -112 2
LINE Normal 1280 -64 1296 -16 2
LINE Normal 1232 0 1280 -64 2
LINE Normal 1216 -64 1232 0 2
LINE Normal 1168 16 1216 -64 2
LINE Normal 1152 -64 1168 16 2
LINE Normal 1056 -16 1152 -64 2
LINE Normal 1088 -80 1056 -16 2
LINE Normal 992 -64 1088 -80 2
LINE Normal 1024 -128 992 -64 2
LINE Normal 976 -176 1024 -128 2
LINE Normal 1024 -176 976 -176 2
LINE Normal 1008 -256 1024 -176 2
