Version 4
SHEET 1 2656 1012
WIRE 720 -96 560 -96
WIRE 448 -16 256 -16
WIRE 768 -16 560 -16
WIRE 448 96 480 32
WIRE 448 96 336 96
WIRE 544 96 528 32
WIRE 672 96 544 96
WIRE 768 112 768 -16
WIRE 912 112 768 112
WIRE 768 160 768 112
WIRE 960 176 832 176
WIRE 256 192 256 -16
WIRE 256 192 112 192
WIRE 256 224 256 192
WIRE 256 512 256 336
WIRE 768 512 768 272
WIRE 768 512 256 512
WIRE 256 544 256 512
FLAG 256 544 0
DATAFLAG 176 192 ""
DATAFLAG 368 96 ""
DATAFLAG 912 112 "Ix(U4:1)"
DATAFLAG 736 -16 ""
DATAFLAG 624 96 ""
DATAFLAG 928 176 ""
DATAFLAG 672 -96 ""
SYMBOL Circuitos2\\Letreros\\Teoría\ de\ Circuitos\ II -192 -352 R0
SYMATTR InstName X1
SYMBOL Circuitos2\\Magneticos\\fmm 272 272 R0
WINDOW 3 122 -2 Center 2
SYMATTR Value N=1000 I=1.2
SYMATTR InstName U8
SYMBOL Circuitos2\\Magneticos\\reluctorhfh 512 -16 R0
SYMATTR InstName U3
SYMBOL Circuitos2\\Magneticos\\Entrehierro 768 208 R0
SYMATTR InstName U4
TEXT 384 464 Left 2 !.op
TEXT 344 440 Left 2 ;* ANÁLISIS
TEXT 664 -208 Left 4 !.param L1=43.8 A1 = 4\n.param Le=0.2 Ae =4.84
TEXT 688 -256 Left 2 ;Definición de los parámetros
TEXT -368 -256 Left 3 !* Ejemplo 12.14 Edminister
TEXT -376 -224 Left 2 ;El núcleo magnético de hierro fundido de la figura tien una área de 4cm2 y una\nlongitud media de 0.438m. El entrehierro de 2mm tiene una área aparente de 4.84cm2.\nDeterminar los flujos en en entrehiero para Fmm F1=800 y F2= 1200
TEXT 320 128 Left 2 !* Campo B en T
TEXT 416 -384 Center 4 ;Anillo de hierro fundido con entrehierro\ncon reluctores no lineales Brauer\n¨¨¨¨¨¨¨¨¨¨¨¨¨¨¨¨¨¨¨¨¨¨¨¨¨¨¨¨¨¨¨¨¨¨¨¨¨¨¨¨¨¨¨¨¨¨¨¨¨¨¨¨¨¨¨¨¨¨¨
TEXT -240 0 Left 2 ;En el texto para \nF= 800   flujo=134mWb
TEXT -240 72 Left 2 ;F= 1200 Flujo=185mWb
TEXT -216 -128 Left 2 !* La corriente en LTspice en A equivale al flujo magnetico en Wb\n* y la tensión en LTspice en V a las fmm en Av\n* La tensión en el terminal Rel equivale a H^-1
TEXT 528 128 Left 2 !* Campo H en A/m
TEXT 840 -400 Left 3 !* ATENCIÓN *\n* En LTspice Ingresar:\n* Longitud en cm\n*  Área en cm^2
