Version 4
SHEET 1 2656 1012
WIRE 208 64 -112 64
WIRE 304 64 208 64
WIRE 816 64 304 64
WIRE 304 112 304 64
WIRE 448 112 304 112
WIRE 224 160 112 160
WIRE 304 160 304 112
WIRE -112 192 -112 64
WIRE -112 192 -368 192
WIRE 416 192 352 192
WIRE 816 208 816 64
WIRE 992 208 816 208
WIRE 480 240 352 240
WIRE -112 320 -112 192
WIRE 816 320 816 208
WIRE 16 352 -64 352
WIRE 976 352 864 352
WIRE 32 400 -64 400
WIRE 976 400 864 400
WIRE 304 416 304 272
WIRE 304 416 160 416
WIRE -192 432 -336 432
WIRE 736 432 624 432
WIRE 304 448 304 416
WIRE -112 592 -112 432
WIRE 304 592 304 560
WIRE 304 592 -112 592
WIRE 816 592 816 432
WIRE 816 592 304 592
WIRE 304 624 304 592
FLAG 304 624 0
FLAG 208 64 V
DATAFLAG 128 64 ""
DATAFLAG -272 192 "Ix(U4:1)"
DATAFLAG 224 416 ""
DATAFLAG 16 352 ""
DATAFLAG 416 192 ""
DATAFLAG 960 352 ""
DATAFLAG 416 112 "Ix(U5:1)"
DATAFLAG 944 208 "Ix(U6:1)"
DATAFLAG 944 400 ""
DATAFLAG 432 240 ""
DATAFLAG 0 400 ""
DATAFLAG -272 432 ""
DATAFLAG 672 432 ""
DATAFLAG 160 160 ""
SYMBOL Circuitos2\\Letreros\\Teoría\ de\ Circuitos\ II -256 -320 R0
SYMATTR InstName X1
SYMBOL Circuitos2\\Magneticos\\fmm 320 496 R0
WINDOW 3 122 -2 Center 2
SYMATTR Value N=500 I=0.28
SYMATTR InstName U8
SYMBOL Circuitos2\\Magneticos\\reluctoraf -80 384 R0
SYMATTR InstName U4
SYMBOL Circuitos2\\Magneticos\\reluctoraf 336 208 M180
SYMATTR Value Lr=L2 Ar=A2
SYMATTR InstName U5
SYMBOL Circuitos2\\Magneticos\\reluctoraf 848 384 R0
SYMATTR InstName U6
TEXT 32 560 Left 2 !.op
TEXT -8 536 Left 2 ;* ANÁLISIS
TEXT 672 -160 Left 3 !.param L1=10 A1= 1.5\n.param L2=4 A2 = 3\n.param L3=10 A3 = 1.5
TEXT 680 -208 Left 2 ;Definición de los parámetros
TEXT -424 -240 Left 3 !* Ejemplo 12-17 de Edminister Fig 12-29
TEXT -408 -200 Left 2 ;El núcleo central del circuito magnético de la figura está\nbobinado con 500 espiras. El material es acero moldeado.\nLas longituesd medias son L1= 4cm y L2 = L3= 10cm\nCalcular la corriente i que debe aplicarse a la bobinado\npara obtener  un flujo en la rama 3\n de 0.173 mWb
TEXT -80 128 Left 2 !* Rama1
TEXT 320 328 Left 2 !* Rama 2
TEXT 688 168 Left 2 !* Rama 3
TEXT 840 296 Left 2 !* Campo B en T
TEXT 448 408 Left 2 !* Campo B en T
TEXT -40 320 Left 2 !* Campo B en T
TEXT 320 -352 Center 4 ;Circuito Magnético de 3 ramas\ncon reluctores no lineales Brauer\n¨¨¨¨¨¨¨¨¨¨¨¨¨¨¨¨¨¨¨¨¨¨¨¨¨¨¨¨¨¨¨¨¨¨¨¨¨¨¨¨¨¨¨¨¨¨¨¨
TEXT -200 -48 Left 2 !* La corriente en LTspice en A equivale al flujo magnetico en Wb\n* y la tensión en LTspice en V a las fmm en Av\n* La tensión en el terminal Rel equivale a H^-1
TEXT 320 -224 Left 3 !* ATENCIÓN *\n* En LTspice Ingresar:\n* Longitud en cm\n*  Área en cm^2
TEXT 400 264 Left 2 !* Campo B en T
TEXT 360 160 Left 2 !* Campo H en A/m
TEXT 880 424 Left 2 !* Campo H en A/m
TEXT -80 432 Left 2 !* Campo H en A/m
