Version 4
SHEET 1 2656 1012
WIRE 832 -64 704 -64
WIRE 704 -48 704 -64
WIRE 592 32 400 32
WIRE 912 32 704 32
WIRE 592 144 624 80
WIRE 592 144 480 144
WIRE 704 144 672 80
WIRE 832 144 704 144
WIRE 912 160 912 32
WIRE 1056 160 912 160
WIRE 912 208 912 160
WIRE 1120 224 976 224
WIRE 400 240 400 32
WIRE 400 240 272 240
WIRE 416 240 400 240
WIRE 400 272 400 240
WIRE 400 560 400 384
WIRE 912 560 912 320
WIRE 912 560 400 560
WIRE 400 592 400 560
FLAG 400 592 0
DATAFLAG 320 240 ""
DATAFLAG 512 144 ""
DATAFLAG 880 32 ""
DATAFLAG 1072 224 ""
DATAFLAG 992 160 "Ix(U3:1)"
DATAFLAG 784 144 ""
DATAFLAG 784 -64 ""
SYMBOL Circuitos2\\Letreros\\Teoría\ de\ Circuitos\ II -208 -320 R0
SYMATTR InstName X1
SYMBOL Circuitos2\\Magneticos\\fmm 416 320 R0
WINDOW 3 122 -2 Center 2
SYMATTR Value N=400 I=2.365
SYMATTR InstName U8
SYMBOL Circuitos2\\Magneticos\\Entrehierro 912 256 R0
SYMATTR Value2 fd=1.02
SYMATTR InstName U3
SYMBOL Circuitos2\\Magneticos\\reluctorhfh 656 32 R0
SYMATTR InstName U4
TEXT 528 512 Left 2 !.op
TEXT 488 488 Left 2 ;* ANÁLISIS
TEXT 664 -208 Left 4 !.param L1=44 A1 = 4\n.param Le=0.2 Ae =4
TEXT 688 -256 Left 2 ;Definición de los parámetros
TEXT -368 -216 Left 3 !* Ejemplo 12.9  Edminister
TEXT -376 -168 Left 2 ;El circuito magnético de la figura es de hierro fundido\ncon una longitud media l1= 0.44 m y una sección recta\ncuadrada de 0.02x0.02m. El entrehierro es le=2mm y \nla bobina tiene 400 vueltas. Encontrar la corriente\nrequerida para establecer un flujo en el entrehierro de 0.141 mWb.
TEXT 464 176 Left 2 !* Campo B en T
TEXT 416 -384 Center 4 ;Anillo de hierro fundido con entrehierro\ncon reluctores no lineales Brauer\n¨¨¨¨¨¨¨¨¨¨¨¨¨¨¨¨¨¨¨¨¨¨¨¨¨¨¨¨¨¨¨¨¨¨¨¨¨¨¨¨¨¨¨¨¨¨¨¨¨¨¨¨¨¨¨¨¨¨¨
TEXT 680 176 Left 2 !* Campo H en A/m
TEXT -360 -8 Left 2 !* La corriente en LTspice en A equivale al flujo magnetico en Wb\n* y la tensión en LTspice en V a las fmm en Av\n* La tensión en el terminal Rel equivale a H^-1
TEXT 320 -248 Left 3 !* ATENCIÓN *\n* En LTspice Ingresar:\n* Longitud en cm\n*  Área en cm^2
