Version 4
SHEET 1 2656 1012
WIRE 544 -16 352 -16
WIRE 240 64 48 64
WIRE 560 64 352 64
WIRE 240 176 272 112
WIRE 240 176 128 176
WIRE 368 176 320 112
WIRE 480 176 368 176
WIRE 560 192 560 64
WIRE 704 192 560 192
WIRE 560 240 560 192
WIRE 768 256 624 256
WIRE 48 272 48 64
WIRE 48 272 -96 272
WIRE 48 304 48 272
WIRE 48 592 48 416
WIRE 560 592 560 352
WIRE 560 592 48 592
WIRE 48 624 48 592
FLAG 48 624 0
DATAFLAG -32 272 ""
DATAFLAG 160 176 ""
DATAFLAG 528 64 ""
DATAFLAG 496 -16 ""
DATAFLAG 672 256 ""
DATAFLAG 448 176 ""
DATAFLAG 656 192 "Ix(U4:1)"
SYMBOL Circuitos2\\Letreros\\Teoría\ de\ Circuitos\ II 96 -336 R0
SYMATTR InstName X1
SYMBOL Circuitos2\\Magneticos\\fmm 64 352 R0
WINDOW 3 122 -2 Center 2
SYMATTR Value N=1000 I=1A
SYMATTR InstName U8
SYMBOL Circuitos2\\Magneticos\\reluctorhfh 304 64 R0
SYMATTR InstName U3
SYMBOL Circuitos2\\Magneticos\\Entrehierro 560 288 R0
SYMATTR InstName U4
TEXT 176 544 Left 2 !.op
TEXT 136 520 Left 2 ;* ANÁLISIS
TEXT 784 -40 Left 4 !.param L1=43.8 A1 = 4\n.param Le=0.2 Ae =4.84
TEXT 808 -80 Left 2 ;Definición de los parámetros
TEXT -136 -264 Left 3 !* Ejemplo 12.11 Edminister
TEXT -152 -232 Left 2 ;El núcleo magnético de hierro fundido de la figura tiene una área de 4cm2 y una\nlongitud media de 0.438m. El entrehierro de 2mm tiene una área aparente de 4.84cm2.\nDeterminar el flujo en el entrehierro. La fmm F igual a = 1000 A.
TEXT 96 200 Left 2 !* Campo B en T
TEXT 768 -368 Center 4 ;Anillo de hierro fundido con entrehierro\ncon reluctores no lineales Brauer\n¨¨¨¨¨¨¨¨¨¨¨¨¨¨¨¨¨¨¨¨¨¨¨¨¨¨¨¨¨¨¨¨¨¨¨¨¨¨¨¨¨¨¨¨¨¨¨¨¨¨¨¨¨¨¨¨¨¨¨
TEXT 328 208 Left 2 !* Campo H en A/m
TEXT 8 -128 Left 2 !* La corriente en LTspice en A equivale al flujo magnetico en Wb\n* y la tensión en LTspice en V a las fmm en Av\n* La tensión en el terminal Rel equivale a H^-1
TEXT 872 -240 Left 3 !* ATENCIÓN *\n* En LTspice Ingresar:\n* Longitud en cm\n*  Área en cm^2
