Version 4
SHEET 1 2656 1012
WIRE 608 -96 416 -96
WIRE 304 -16 112 -16
WIRE 624 -16 416 -16
WIRE 304 96 336 32
WIRE 304 96 192 96
WIRE 432 96 384 32
WIRE 544 96 432 96
WIRE 624 112 624 -16
WIRE 768 112 624 112
WIRE 624 160 624 112
WIRE 832 176 688 176
WIRE 112 192 112 -16
WIRE 112 192 -32 192
WIRE 112 224 112 192
WIRE 112 512 112 336
WIRE 624 512 624 272
WIRE 624 512 112 512
WIRE 112 544 112 512
FLAG 112 544 0
DATAFLAG 32 192 ""
DATAFLAG 224 96 ""
DATAFLAG 592 -16 ""
DATAFLAG 560 -96 ""
DATAFLAG 736 176 ""
DATAFLAG 512 96 ""
DATAFLAG 720 112 "Ix(U4:1)"
SYMBOL Circuitos2\\Letreros\\Teoría\ de\ Circuitos\ II -192 -352 R0
SYMATTR InstName X1
SYMBOL Circuitos2\\Magneticos\\fmm 128 272 R0
WINDOW 3 122 -2 Center 2
SYMATTR Value N=1000 I=1A
SYMATTR InstName U8
SYMBOL Circuitos2\\Magneticos\\reluctorhfh 368 -16 R0
SYMATTR InstName U3
SYMBOL Circuitos2\\Magneticos\\Entrehierro 624 208 R0
SYMATTR InstName U4
TEXT 240 464 Left 2 !.op
TEXT 200 440 Left 2 ;* ANÁLISIS
TEXT 616 -224 Left 4 !.param L1=043.8 A1 = 4\n.param Le=0.2 Ae =4
TEXT 440 -264 Left 2 ;Definición de los parámetros
TEXT -376 -248 Left 3 !* Ejemplo 12.11 Edminister sin flujo de dispersión
TEXT -408 -208 Left 2 ;El núcleo magnético de hierro fundido de la figura tiene una área de 4cm2 y una\nlongitud media de 0.438m. El entrehierro de 2mm tiene una área aparente de 4.84cm2.\nDeterminar el flujo en el entrehierro. La fmm F igual a = 1000 A.
TEXT 160 120 Left 2 !* Campo B en T
TEXT 416 -384 Center 4 ;Anillo de hierro fundido con entrehierro\ncon reluctores no lineales Brauer\n¨¨¨¨¨¨¨¨¨¨¨¨¨¨¨¨¨¨¨¨¨¨¨¨¨¨¨¨¨¨¨¨¨¨¨¨¨¨¨¨¨¨¨¨¨¨¨¨¨¨¨¨¨¨¨¨¨¨¨
TEXT 392 128 Left 2 !* Campo H en A/m
TEXT -392 -104 Left 2 !* La corriente en LTspice en A equivale al flujo magnetico en Wb\n* y la tensión en LTspice en V a las fmm en Av\n* La tensión en el terminal Rel equivale a H^-1
TEXT 832 -384 Left 3 !* ATENCIÓN *\n* En LTspice Ingresar:\n* Longitud en cm\n*  Área en cm^2
