Version 4
SHEET 1 2656 1012
WIRE 624 32 480 32
WIRE 368 112 176 112
WIRE 688 112 480 112
WIRE 688 192 688 112
WIRE 832 192 688 192
WIRE 368 224 400 160
WIRE 368 224 256 224
WIRE 480 224 448 160
WIRE 592 224 480 224
WIRE 688 288 688 192
WIRE 176 320 176 112
WIRE 176 320 32 320
WIRE 816 320 736 320
WIRE 176 352 176 320
WIRE 912 368 736 368
WIRE 608 400 480 400
WIRE 176 640 176 464
WIRE 688 640 688 400
WIRE 688 640 176 640
WIRE 176 672 176 640
FLAG 176 672 0
DATAFLAG 96 320 ""
DATAFLAG 816 320 ""
DATAFLAG 288 224 ""
DATAFLAG 240 112 "Ix(U1:1)"
DATAFLAG 768 192 "Ix(U2:1)"
DATAFLAG 864 368 ""
DATAFLAG 560 224 ""
DATAFLAG 560 32 ""
DATAFLAG 528 400 ""
SYMBOL Circuitos2\\Letreros\\Teoría\ de\ Circuitos\ II -208 -320 R0
SYMATTR InstName X1
SYMBOL Circuitos2\\Magneticos\\fmm 192 400 R0
SYMATTR Value N=40 I=1
SYMATTR InstName U3
SYMBOL Circuitos2\\Magneticos\\reluctoraf 720 352 R0
SYMATTR Value Lr=L2 Ar=A2
SYMATTR InstName U2
SYMBOL Circuitos2\\Magneticos\\reluctorhn 432 144 M90
SYMATTR InstName U1
TEXT 304 592 Left 2 !.op
TEXT 264 568 Left 2 ;* ANÁLISIS
TEXT 664 -176 Left 4 !.param L1=10 A1 =2.25\n.param L2=8 A2 =3
TEXT 688 -224 Left 2 ;Definición de los parámetros
TEXT -408 -224 Left 3 !* Ejemplo 12.16 Edminister
TEXT -456 -184 Left 3 ;El circuito magnético de la figura tiene un parte en forma de C\nde aleación de Hierro-Niquel, parte 1, y una parte 2 de acero de fundición.\nL1=10cm y A1=2.25cm2. y L2=8cm y A2=3cm2.\nEncontrar los campos magnéticos B1 y B2. F=40 A
TEXT 784 280 Left 2 !* Campo B en T
TEXT 416 -344 Center 4 ;Circuito compuesto por dos materiales\ncon reluctores no lineales Brauer\n¨¨¨¨¨¨¨¨¨¨¨¨¨¨¨¨¨¨¨¨¨¨¨¨¨¨¨¨¨¨¨¨¨¨¨¨¨¨¨¨¨¨¨¨¨¨¨¨¨¨¨¨¨¨¨¨¨¨¨
TEXT 472 160 Left 2 !* Aleación Fe-Ni
TEXT 776 384 Left 2 !* Campo H en A/m
TEXT 456 240 Left 2 !* Campo H en A/m
TEXT 232 248 Left 2 !* Campo B en T
TEXT -416 -16 Left 2 !* La corriente en LTspice en A equivale al flujo magnetico en Wb\n* y la tensión en LTspice en V a las fmm en Av\n* La tensión en el terminal Rel equivale a H^-1
TEXT 776 -72 Left 3 !* ATENCIÓN *\n* En LTspice Ingresar:\n* Longitud en cm\n*  Área en cm^2
