Version 4
SHEET 1 2656 1012
WIRE 160 64 -160 64
WIRE 256 64 160 64
WIRE 768 64 256 64
WIRE 256 112 256 64
WIRE 400 112 256 112
WIRE 768 112 768 64
WIRE 944 112 768 112
WIRE -160 192 -160 64
WIRE -32 224 -112 224
WIRE 768 224 768 112
WIRE 928 256 816 256
WIRE -32 272 -112 272
WIRE 256 272 256 112
WIRE 256 272 160 272
WIRE 256 288 256 272
WIRE -240 304 -352 304
WIRE 944 304 816 304
WIRE 432 320 304 320
WIRE 688 336 560 336
WIRE 336 368 304 368
WIRE -160 400 -160 304
WIRE 176 400 64 400
WIRE 768 400 768 336
WIRE -160 592 -160 512
WIRE 256 592 256 400
WIRE 256 592 -160 592
WIRE 768 592 768 512
WIRE 768 592 256 592
WIRE 256 624 256 592
FLAG 256 624 0
FLAG 160 64 V
DATAFLAG 80 64 ""
DATAFLAG -112 64 "Ix(U3:1)"
DATAFLAG 704 64 "Ix(U7:1)"
DATAFLAG 160 272 ""
DATAFLAG -48 224 ""
DATAFLAG 336 368 ""
DATAFLAG 880 256 ""
DATAFLAG 368 112 "Ix(U6:1)"
DATAFLAG 912 112 ""
DATAFLAG -64 272 ""
DATAFLAG 368 320 ""
DATAFLAG 112 400 ""
DATAFLAG 896 304 ""
DATAFLAG 608 336 ""
DATAFLAG -304 304 ""
SYMBOL Circuitos2\\Letreros\\Teoría\ de\ Circuitos\ II -256 -320 R0
SYMATTR InstName X1
SYMBOL Circuitos2\\Magneticos\\fmm -144 464 M180
WINDOW 3 -219 -37 Left 2
WINDOW 0 71 -3 Center 2
SYMATTR Value N=50 I=0.6266A
SYMATTR InstName U8
SYMBOL Circuitos2\\Magneticos\\reluctoral -128 256 R0
SYMATTR InstName U3
SYMBOL Circuitos2\\Magneticos\\reluctoral 288 352 R0
SYMATTR Value Lr=L2 Ar=A1
SYMATTR InstName U6
SYMBOL Circuitos2\\Magneticos\\reluctoral 800 288 R0
SYMATTR InstName U7
SYMBOL Circuitos2\\Magneticos\\fmm 784 448 R0
WINDOW 3 122 -2 Center 2
SYMATTR Value N=50 I=1.021
SYMATTR InstName U9
TEXT -16 560 Left 2 !.op
TEXT -56 536 Left 2 ;* ANÁLISIS
TEXT 672 -224 Left 3 !.param L1=25 A1 =1.3\n.param L2=5  A2=1.3
TEXT 672 -264 Left 2 ;Definición de los parámetros
TEXT -440 -248 Left 3 !* Ejemplo 12-19 de Edminister
TEXT -160 -208 Left 2 ;El circuito de tres ramas es de acero laminado con la misma área\nde sección recta, S=1.30 cm^2. Las longitudes medias son\nL1=L3=25cm, L2=5cm. La bobinas tienen 50 vueltas cada una.\nDadof Fi1= 90uWb y Fi3=120 uWb, determinar las corrientes\nde las bobinas.
TEXT -112 112 Left 2 !* Rama1
TEXT 352 176 Left 2 !* Rama 2
TEXT 616 168 Left 2 !* Rama 3
TEXT 816 200 Left 2 !* Campo B en T
TEXT 336 256 Left 2 !* Campo B en T
TEXT -80 168 Left 2 !* Campo B en T
TEXT 320 -352 Center 4 ;Circuito Magnético de 3 ramas\ncon reluctores no lineales Brauer\n¨¨¨¨¨¨¨¨¨¨¨¨¨¨¨¨¨¨¨¨¨¨¨¨¨¨¨¨¨¨¨¨¨¨¨¨¨¨¨¨¨¨¨¨¨¨¨¨
TEXT -192 -64 Left 2 !* La corriente en LTspice en A equivale al flujo magnetico en Wb\n* y la tensión en LTspice en V a las fmm en Av\n* La tensión en el terminal Rel equivale a H^-1
TEXT 672 -136 Left 3 !* ATENCIÓN *\n* En LTspice Ingresar:\n* Longitud en cm\n*  Área en cm^2
