Version 4
SHEET 1 1092 680
SYMBOL Circuitos2\\Magneticos\\fmm 224 80 R0
SYMATTR InstName U2
SYMBOL Circuitos2\\Magneticos\\Reluctancia 480 64 R0
SYMATTR InstName R1
SYMBOL Circuitos2\\Magneticos\\Reluctor 736 64 R0
SYMATTR InstName U3
SYMBOL Circuitos2\\Magneticos\\reluctoraf 288 272 R0
SYMATTR InstName U4
SYMBOL Circuitos2\\Magneticos\\reluctorhf -224 288 R0
SYMATTR InstName U9
SYMBOL Circuitos2\\Magneticos\\reluctorhn 656 480 R0
SYMATTR InstName U10
SYMBOL Circuitos2\\Magneticos\\Rentrehierro -320 80 R0
SYMATTR InstName R2
SYMBOL Circuitos2\\Letreros\\Teoría\ de\ Circuitos\ II -240 -80 R0
SYMATTR InstName X1
SYMBOL Circuitos2\\Magneticos\\Entrehierro -32 64 R0
SYMATTR InstName U11
SYMBOL Circuitos2\\antrMagneticos\\reluctorbr 32 480 R0
SYMATTR InstName U12
SYMBOL Circuitos2\\antrMagneticos\\reluctoral 752 272 R0
SYMATTR InstName U13
TEXT -440 168 Left 2 ;Reluctancia\nentrehierro
TEXT -144 144 Left 2 ;Reluctor\nEntrehierro
TEXT 192 168 Left 2 ;Fmm
TEXT 384 152 Left 2 ;Reluctancia
TEXT 704 160 Left 2 ;Reluctor
TEXT -24 360 Left 2 ;Reluctor no lineal de acero de fundición
TEXT -168 552 Left 2 ;Reluctor no lineal de Brauer
TEXT -512 360 Left 2 ;Reluctor no lineal de hierro de fundición
TEXT 432 544 Left 2 ;Reluctor no lineal de Hierro Niquel
TEXT 480 360 Left 2 ;Reluctor no lineal de acero laminado
TEXT 48 -88 Left 4 ;Componentes de la biblioteca Magneticos
TEXT 88 -40 Left 2 ;...\\Documents\\LTspiceXVII\\lib\\sym\\Circuitos2\\Magneticos
