Version 4
SHEET 1 1004 680
TEXT -56 104 Left 2 ;k1=2040 k2=2.1281 k3=-88.9504 Hierro de Fundición Edminister
TEXT -56 152 Left 2 ;k1=15.685 k2=1.917 k3=662.1011 Acero de fundición Edminister
TEXT -56 200 Left 2 ;k1=7.3041 k2=2.4337 k3=40.8126 Acero laminado al silicio de Edminister
TEXT -8 -24 Left 4 ;Parametros de Bauer de los \nmateriales del libro de Edminister
