Version 4
SHEET 1 880 680
WIRE 112 128 64 128
WIRE 256 128 208 128
WIRE 368 128 336 128
WIRE 384 128 368 128
WIRE 64 208 64 128
WIRE 384 208 384 128
WIRE 64 336 64 288
WIRE 384 336 384 272
FLAG 368 128 C
SYMBOL ltcerrar 160 128 R0
SYMATTR InstName U1
SYMBOL voltage 64 192 R0
WINDOW 123 0 0 Left 2
WINDOW 39 24 124 Left 2
SYMATTR InstName V1
SYMATTR Value 10V
SYMBOL cap 368 208 R0
SYMATTR InstName C1
SYMATTR Value 10nF
SYMBOL res 240 112 M90
WINDOW 0 0 56 VBottom 2
WINDOW 3 32 56 VTop 2
SYMATTR InstName R1
SYMATTR Value 10k
SYMBOL masa 64 352 R0
SYMATTR InstName U2
SYMBOL masa 384 352 R0
SYMATTR InstName U3
SYMBOL Circuitos2\\Letreros\\Teoría\ de\ Circuitos\ II 48 48 R0
SYMATTR InstName X1
TEXT 112 384 Left 2 !.tran 0.8ms uic
TEXT 104 352 Left 2 ;* ANÁLISIS
TEXT 72 408 Left 2 !.options plotwinsize=0
