Version 4
SHEET 1 1132 2376
WIRE 656 1552 208 1552
WIRE 240 1632 -432 1632
WIRE 560 1632 240 1632
WIRE -432 1648 -432 1632
WIRE 240 1680 240 1632
WIRE 256 1680 240 1680
WIRE 560 1680 560 1632
WIRE 560 1680 544 1680
WIRE -432 1760 -432 1728
WIRE -176 1760 -320 1760
WIRE -80 1760 -176 1760
WIRE 16 1760 0 1760
WIRE 256 1760 16 1760
WIRE 624 1760 544 1760
WIRE 688 1760 624 1760
WIRE 832 1760 768 1760
WIRE -320 1776 -320 1760
WIRE 16 1840 16 1760
WIRE 80 1840 16 1840
WIRE 256 1840 160 1840
WIRE 832 1840 832 1760
WIRE 832 1840 544 1840
WIRE -320 1872 -320 1856
WIRE -96 1920 -144 1920
WIRE 16 1920 16 1840
WIRE 16 1920 -16 1920
WIRE 32 1920 16 1920
WIRE 208 1920 208 1552
WIRE 208 1920 112 1920
WIRE 256 1920 208 1920
WIRE 688 1920 544 1920
WIRE 832 1920 832 1840
WIRE 832 1920 768 1920
WIRE 176 2000 160 2000
WIRE 256 2000 240 2000
WIRE 832 2016 832 1920
WIRE 256 2080 240 2080
WIRE 560 2080 544 2080
WIRE -144 2208 -144 1920
WIRE 624 2208 624 1760
WIRE 624 2208 -144 2208
WIRE -176 2240 -176 1760
WIRE 832 2240 832 2080
WIRE 832 2240 -176 2240
FLAG -432 1760 0
FLAG 240 2080 0
FLAG 560 2080 0
FLAG 160 2000 0
FLAG -320 1872 0
FLAG -320 1760 IN
FLAG 656 1552 salida
SYMBOL VOLTAGE -432 1632 R0
SYMATTR InstName V2
SYMATTR Value 3.3
SYMBOL FilterProducts\\LTC1563-2 400 2016 R0
SYMATTR InstName U1
SYMBOL cap 240 1984 R90
WINDOW 0 0 32 VBottom 2
WINDOW 3 32 32 VTop 2
SYMATTR InstName C1
SYMATTR Value .1µ
SYMBOL res 176 1824 R90
WINDOW 0 0 56 VBottom 2
WINDOW 3 32 56 VTop 2
SYMATTR InstName R1
SYMATTR Value 15K
SYMBOL res 128 1904 R90
WINDOW 0 0 56 VBottom 2
WINDOW 3 32 56 VTop 2
SYMATTR InstName R2
SYMATTR Value 32.4K
SYMBOL VOLTAGE -320 1760 R0
WINDOW 3 24 160 Left 2
WINDOW 123 24 132 Left 2
WINDOW 39 0 0 Left 2
SYMATTR Value 1.66
SYMATTR Value2 AC 1
SYMATTR InstName V1
SYMBOL res 16 1744 R90
WINDOW 0 0 56 VBottom 2
WINDOW 3 32 56 VTop 2
SYMATTR InstName R5
SYMATTR Value 32.4K
SYMBOL res -112 1936 R270
WINDOW 0 32 56 VTop 2
WINDOW 3 0 56 VBottom 2
SYMATTR InstName R3
SYMATTR Value 32.4K
SYMBOL res 672 1776 R270
WINDOW 0 32 56 VTop 2
WINDOW 3 0 56 VBottom 2
SYMATTR InstName R4
SYMATTR Value 32.4K
SYMBOL res 672 1936 R270
WINDOW 0 32 56 VTop 2
WINDOW 3 0 56 VBottom 2
SYMATTR InstName R6
SYMATTR Value 21K
SYMBOL cap 816 2016 R0
SYMATTR InstName C2
SYMATTR Value 27pF
TEXT 848 2120 Left 2 !.ac dec 241 1K 1Meg
TEXT 848 2152 Left 2 !.options gminsteps=0
TEXT 56 1472 Left 2 ;Single Supply, 100 kHz, Elliptic Lowpass Filter
